/*--------------------------------*- C++ -*----------------------------------*\
  =========                 |
  \\      /  F ield         | OpenFOAM: The Open Source CFD Toolbox
   \\    /   O peration     | Website:  https://openfoam.org
    \\  /    A nd           | Version:  7
     \\/     M anipulation  |
\*---------------------------------------------------------------------------*/
FoamFile
{
    version          2.0;
    format           ascii;
    class            dictionary;
    location         "constant";
    object           CanteraTorchProperties;
}
// * * * * * * * * * * * * * * * * * * * * * * * * * * * * * * * * * * * * * //

chemistry            on;

CanteraMechanismFile "ES80_H2-7-16.yaml";

transportModel       "Mix";

odeCoeffs
{
    "relTol"         1e-6;
    "absTol"         1e-10;
}

inertSpecie          "N2";

zeroDReactor
{
    constantProperty "pressure";
}

splittingStrategy    off;

TorchSettings
{
    torch            on;
    GPU              on;
    log              on;
    tfModelPath0      "/home/runze/massiveParallel/deepflame-dev/examples/df0DFoam/zeroD_cubicReactor/H2/tfIntegrator/new_ESH2sub1.pb"; 
    tfModelPath1      "/home/runze/massiveParallel/deepflame-dev/examples/df0DFoam/zeroD_cubicReactor/H2/tfIntegrator/new_ESH2sub2.pb"; 
    tfModelPath2      "/home/runze/massiveParallel/deepflame-dev/examples/df0DFoam/zeroD_cubicReactor/H2/tfIntegrator/new_ESH2sub3.pb"; 
    coresPerGPU      4;
    GPUsPerNode      4;
}

loadbalancing
{
    active           true;
    log              false;
    algorithm        allAverage;//headTail;
}


// ************************************************************************* //
